/*--------------------------------*- C++ -*----------------------------------*\
  =========                 |
  \\      /  F ield         | OpenFOAM: The Open Source CFD Toolbox
   \\    /   O peration     | Website:  https://openfoam.org
    \\  /    A nd           | Version:  12
     \\/     M anipulation  |
\*---------------------------------------------------------------------------*/
FoamFile
{
    format      ascii;
    class       dictionary;
    location    "system";
    object      setFieldsDict;
}
// * * * * * * * * * * * * * * * * * * * * * * * * * * * * * * * * * * * * * //

defaultFieldValues
(
    volScalarFieldValue alpha.water 1
);

regions
(
    
// Another region
    {
        name    region2;
        type    cylinder;
        coordinates (0.05 0.05 0) (0.05 0.05 0.001);  // Defines a cylindrical region
        fieldValues
        (
            volScalarFieldValue alpha.water 0
        );
    }




);


// ************************************************************************* //
